Circuit: * C:\Users\nicof\Desktop\Laboratorios 6 y 7\Repositorio\Magnetometro-optico\ltspice\Draft3.asc


Date: Sat Nov  4 21:43:34 2023
Total elapsed time: 0.186 seconds.

tnom = 27
temp = 27
method = trap
totiter = 247
traniter = 0
tranpoints = 0
accept = 0
rejected = 0
matrix size = 133
fillins = 215
solver = Normal
Avg thread counts: 7.5/0.0/8.0/7.5
Matrix Compiler1:    1146 opcodes  5.3/3.0/[2.0]
Matrix Compiler2: 14.78 KB object code size  2.4/2.4/[1.6]

