Circuit: * C:\Users\nicof\Desktop\Laboratorios 6 y 7\Repositorio\Magnetometro-optico\ltspice\Draft1.asc

Early termination of direct N-R iteration.
Direct Newton iteration failed to find .op point.  (Use ".option noopiter" to skip.)
Starting Gmin stepping
Gmin = 10
Gmin = 1.07374
vernier = 0.5
vernier = 0.25
vernier = 0.125
vernier = 0.0625
Gmin = 1.02835
vernier = 0.03125
vernier = 0.015625
vernier = 0.0078125
Gmin = 0.99882
vernier = 0.00390625
vernier = 0.00195312
vernier = 0.000976562
vernier = 0.000488281
Gmin = 0
Gmin = 0
Gmin stepping failed

Starting source stepping with srcstepmethod=0
Source Step = 3.0303%
Source Step = 33.3333%
Source Step = 63.6364%
Source Step = 93.9394%
Source stepping succeeded in finding the operating point.


Date: Tue Oct 10 11:55:32 2023
Total elapsed time: 1.740 seconds.

tnom = 27
temp = 27
method = trap
totiter = 1752
traniter = 0
tranpoints = 0
accept = 0
rejected = 0
matrix size = 207
fillins = 763
solver = Normal
Avg thread counts: 2.5/0.0/8.0/1.1
Matrix Compiler1:    4313 opcodes
Matrix Compiler2: 31.28 KB object code size  5.2/5.4/[3.2]

