Circuit: * C:\Users\nicof\Desktop\Laboratorios 6 y 7\Repositorio\Magnetometro-optico\ltspice\Draft2.asc


Date: Sun Nov  5 03:04:11 2023
Total elapsed time: 0.129 seconds.

tnom = 27
temp = 27
method = trap
totiter = 213
traniter = 0
tranpoints = 0
accept = 0
rejected = 0
matrix size = 238
fillins = 395
solver = Normal
Avg thread counts: 8.0/0.0/8.0/8.0
Matrix Compiler1: 37.58 KB object code size  9.6/5.3/[3.3]
Matrix Compiler2: 27.19 KB object code size  4.1/4.4/[3.2]

