Circuit: * C:\Users\nicof\Desktop\Laboratorios 6 y 7\Repositorio\Magnetometro-optico\ltspice\Draft3.asc

Direct Newton iteration for .op point succeeded.

Date: Fri Nov  3 17:57:10 2023
Total elapsed time: 0.198 seconds.

tnom = 27
temp = 27
method = modified trap
totiter = 560
traniter = 556
tranpoints = 279
accept = 279
rejected = 0
matrix size = 15
fillins = 5
solver = Normal
Avg thread counts: 5.3/7.1/7.2/5.3
Matrix Compiler1: 650 bytes object code size  0.6/0.5/[0.4]
Matrix Compiler2: 1.01 KB object code size  0.4/0.8/[0.3]

