Circuit: * C:\Users\nicof\Desktop\Laboratorios 6 y 7\Repositorio\Magnetometro-optico\ltspice\fotodetectores_mejorados_x3.asc


Date: Fri Nov 24 20:35:41 2023
Total elapsed time: 0.275 seconds.

tnom = 27
temp = 27
method = trap
totiter = 2061
traniter = 0
tranpoints = 0
accept = 0
rejected = 0
matrix size = 238
fillins = 482
solver = Normal
Avg thread counts: 2.3/0.0/3.7/2.3
Matrix Compiler1: 45.37 KB object code size  11.2/7.4/[3.7]
Matrix Compiler2: 28.74 KB object code size  4.5/5.1/[2.8]

