Circuit: * C:\Users\nicof\Desktop\Laboratorios 6 y 7\Repositorio\Magnetometro-optico\ltspice\fotodetectores.asc

Early termination of direct N-R iteration.
Direct Newton iteration failed to find .op point.  (Use ".option noopiter" to skip.)
Starting Gmin stepping
Gmin = 10
Gmin = 1.07374
Gmin = 0.115292
Gmin = 0.0123794
Gmin = 0.00132923
Gmin = 0.000142725
Gmin = 1.5325e-05
Gmin = 1.6455e-06
Gmin = 1.76685e-07
vernier = 0.5
vernier = 0.25
vernier = 0.125
Gmin = 1.51628e-07
vernier = 0.166667
vernier = 0.222222
Gmin = 1.00165e-07
vernier = 0.296296
Gmin = 5.25516e-08
vernier = 0.395061
vernier = 0.526748
Gmin = 1.82075e-08
vernier = 0.702331
vernier = 0.351165
vernier = 0.175583
vernier = 0.0877914
Gmin = 1.11173e-08
vernier = 0.0438957
vernier = 0.0219478
vernier = 0.0109739
vernier = 0.00548696
Gmin = 1.10869e-08
vernier = 0.00274348
vernier = 0.00137174
vernier = 0.00068587
Gmin = 1.1085e-08
vernier = 0.000514403
Gmin = 0
Gmin stepping failed

Starting source stepping with srcstepmethod=0
Source Step = 3.0303%
Source Step = 33.3333%
Source Step = 63.6364%
Source Step = 88.6364%
vernier = 0.0625
Source Step = 89.7727%
Source Step = 91.6667%
Source Step = 91.9389%
Source Step = 92.0573%
Source Step = 92.1757%
Source Step = 92.294%
Source Step = 92.4124%
vernier = 0.00585938
Source Step = 92.5663%
Source Step = 92.6062%
Source Step = 92.6506%
Source Step = 92.695%
Source Step = 92.7394%
Source Step = 92.7838%
vernier = 0.00219727
Source Step = 92.8459%
Source Step = 92.9125%
Source Step = 92.9791%
Source Step = 93.0457%
Source Step = 93.1123%
vernier = 0.0032959
Source Step = 93.2022%
Source Step = 93.302%
Source Step = 93.4019%
Source Step = 93.5018%
Source Step = 93.6017%
vernier = 0.00494385
Source Step = 93.7315%
Source Step = 93.8813%
Source Step = 94.0311%
Source Step = 94.1809%
Source Step = 94.3308%
vernier = 0.00741577
Source Step = 94.518%
Source Step = 94.7427%
Source Step = 94.9675%
Source Step = 95.1922%
Source Step = 95.4169%
vernier = 0.0111237
Source Step = 95.6866%
Source Step = 96.0237%
Source Step = 96.3607%
Source Step = 96.6978%
Source Step = 97.0349%
vernier = 0.0166855
Source Step = 97.4225%
Source Step = 97.9282%
Source Step = 98.4338%
Source Step = 98.9394%
Source Step = 99.445%
vernier = 0.0250282
Source Step = 100%
Source stepping succeeded in finding the operating point.

Early termination of direct N-R iteration.
Direct Newton iteration failed to find .op point.  (Use ".option noopiter" to skip.)
Starting Gmin stepping
Gmin = 10
Gmin = 1.07374
Gmin = 0.115292
Gmin = 0.0123794
Gmin = 0.00132923
Gmin = 0.000142725
Gmin = 1.5325e-05
Gmin = 1.6455e-06
Gmin = 1.76685e-07
vernier = 0.5
vernier = 0.25
vernier = 0.125
vernier = 0.0625
Gmin = 1.63733e-07
vernier = 0.03125
vernier = 0.0416667
Gmin = 1.53451e-07
vernier = 0.0555555
vernier = 0.074074
Gmin = 1.33379e-07
vernier = 0.0987653
Gmin = 1.07067e-07
vernier = 0.131687
vernier = 0.175583
Gmin = 7.42371e-08
vernier = 0.23411
vernier = 0.312147
Gmin = 4.16703e-08
vernier = 0.156073
vernier = 0.0780367
vernier = 0.0390184
vernier = 0.0195092
Gmin = 4.26097e-08
vernier = 0.00975459
vernier = 0.0048773
vernier = 0.00243865
Gmin = 4.23767e-08
vernier = 0.00121932
vernier = 0.00162576
Gmin = 4.22435e-08
vernier = 0.000812882
vernier = 0.00108384
Gmin = 4.21549e-08
vernier = 0.00144512
vernier = 0.000722562
Gmin = 4.2075e-08
vernier = 0.000963415
vernier = 0.00128455
vernier = 0.000642277
Gmin = 4.19991e-08
vernier = 0.000856369
vernier = 0.000428184
Gmin = 4.19384e-08
vernier = 0.000570912
vernier = 0.000428184
Gmin = 4.19025e-08
vernier = 0.000570912
vernier = 0.000428184
vernier = 0.000570912
Gmin = 4.18652e-08
vernier = 0.000428184
vernier = 0.000570912
vernier = 0.000428184
Gmin = 4.18398e-08
vernier = 0.000570912
vernier = 0.000428184
Gmin = 4.1804e-08
vernier = 0.000570912
vernier = 0.000428184
vernier = 0.000570912
vernier = 0.000428184
Gmin = 4.17771e-08
vernier = 0.000570911
vernier = 0.000428184
Gmin = 4.17414e-08
vernier = 0.000570911
vernier = 0.000428183
vernier = 0.000570911
vernier = 0.000428183
Gmin = 4.17146e-08
vernier = 0.000570911
vernier = 0.000428183
Gmin = 4.16789e-08
vernier = 0.000570911
vernier = 0.000428183
vernier = 0.000570911
Gmin = 4.16417e-08
vernier = 0.000428183
vernier = 0.000570911
vernier = 0.000428183
Gmin = 4.16165e-08
vernier = 0.00057091
vernier = 0.000428183
Gmin = 4.15808e-08
vernier = 0.00057091
vernier = 0.000428183
vernier = 0.00057091
vernier = 0.000428183
Gmin = 4.15541e-08
vernier = 0.00057091
vernier = 0.000428182
Gmin = 4.15186e-08
vernier = 0.00057091
vernier = 0.000428182
vernier = 0.00057091
vernier = 0.000428182
Gmin = 4.14919e-08
vernier = 0.00057091
vernier = 0.000428182
Gmin = 4.14564e-08
vernier = 0.000570909
vernier = 0.000428182
vernier = 0.000570909
Gmin = 4.14194e-08
vernier = 0.000428182
Gmin = 0
Gmin stepping failed

Starting source stepping with srcstepmethod=0
Source Step = 3.0303%
Source Step = 33.3333%
Source Step = 63.6364%
Source Step = 88.6364%
vernier = 0.0625
Source Step = 89.7727%
Source Step = 91.6667%
Source Step = 91.9389%
Source Step = 92.0573%
Source Step = 92.1757%
Source Step = 92.294%
Source Step = 92.4124%
vernier = 0.00585938
Source Step = 92.5663%
Source Step = 92.7438%
Source Step = 92.9214%
Source Step = 93.099%
Source Step = 93.2765%
vernier = 0.00878906
Source Step = 93.4985%
Source Step = 93.7648%
Source Step = 94.0311%
Source Step = 94.2975%
Source Step = 94.5638%
vernier = 0.0131836
Source Step = 94.8834%
Source Step = 95.2829%
Source Step = 95.6824%
Source Step = 96.0819%
Source Step = 96.4814%
vernier = 0.0197754
Source Step = 96.9408%
Source Step = 97.5401%
Source Step = 98.1394%
Source Step = 98.7386%
Source Step = 99.1057%
Source Step = 99.1431%
Starting source stepping with srcstepmethod=1
Source Step = 3.0303%
Source Step = 33.3333%
Source Step = 63.6364%
Source Step = 93.9394%
Source Step = 100%
Source Step = 99.3344%
Source Step = 99.364%
Source Step = 99.3936%
Source Step = 99.4232%
Source Step = 99.4528%
Source Step = 99.4824%
vernier = 0.00146484
Source Step = 99.5238%
Source Step = 99.5682%
Source Step = 99.6126%
Source Step = 99.657%
Source Step = 99.7013%
vernier = 0.00219727
Source Step = 99.7613%
Source Step = 99.8279%
Source Step = 99.8944%
Source Step = 99.961%
Source stepping succeeded in finding the operating point.

Early termination of direct N-R iteration.
Direct Newton iteration failed to find .op point.  (Use ".option noopiter" to skip.)
Starting Gmin stepping
Gmin = 10
Gmin = 1.07374
Gmin = 0.115292
Gmin = 0.0123794
Gmin = 0.00132923
Gmin = 0.000142725
Gmin = 1.5325e-05
Gmin = 1.6455e-06
vernier = 0.5
Gmin = 2.7607e-07
vernier = 0.25
vernier = 0.125
vernier = 0.0625
vernier = 0.03125
vernier = 0.015625
Gmin = 2.51957e-07
vernier = 0.0078125
vernier = 0.00390625
vernier = 0.00195312
vernier = 0.00260417
Gmin = 2.51016e-07
vernier = 0.00347222
vernier = 0.00173611
Gmin = 2.49929e-07
vernier = 0.00231481
vernier = 0.00308642
vernier = 0.00154321
Gmin = 2.48859e-07
vernier = 0.00205761
Gmin = 2.4771e-07
vernier = 0.00274348
vernier = 0.00365797
vernier = 0.00182899
Gmin = 2.46467e-07
vernier = 0.00243865
vernier = 0.00325153
Gmin = 2.45032e-07
vernier = 0.00162576
vernier = 0.00216769
Gmin = 2.44203e-07
vernier = 0.00289025
vernier = 0.00385366
vernier = 0.00192683
Gmin = 2.42884e-07
vernier = 0.00256911
Gmin = 2.41523e-07
vernier = 0.00342548
vernier = 0.00171274
vernier = 0.00228365
Gmin = 2.40577e-07
vernier = 0.00304487
vernier = 0.00152243
Gmin = 2.39664e-07
vernier = 0.00202991
vernier = 0.00270655
Gmin = 2.3836e-07
vernier = 0.00360873
vernier = 0.00180436
Gmin = 2.37341e-07
vernier = 0.00240582
vernier = 0.00320776
vernier = 0.00160388
Gmin = 2.36297e-07
vernier = 0.0021385
vernier = 0.00285134
Gmin = 2.3509e-07
vernier = 0.00380178
vernier = 0.00190089
Gmin = 2.3392e-07
vernier = 0.00253452
vernier = 0.00337936
vernier = 0.00168968
Gmin = 2.32811e-07
vernier = 0.00225291
Gmin = 2.31667e-07
vernier = 0.00300387
vernier = 0.00150194
vernier = 0.00200258
Gmin = 2.30871e-07
vernier = 0.00267011
Gmin = 2.29489e-07
vernier = 0.00356014
vernier = 0.00178007
vernier = 0.00237343
Gmin = 2.28572e-07
vernier = 0.00316457
vernier = 0.00158229
Gmin = 2.27715e-07
vernier = 0.00210971
vernier = 0.00281295
Gmin = 2.26358e-07
vernier = 0.0037506
vernier = 0.0018753
vernier = 0.0025004
Gmin = 2.2537e-07
vernier = 0.00333386
vernier = 0.00166693
Gmin = 2.24386e-07
vernier = 0.00222258
vernier = 0.00296343
vernier = 0.00148172
Gmin = 2.23453e-07
vernier = 0.00197562
Gmin = 2.2249e-07
vernier = 0.00263416
vernier = 0.00351222
vernier = 0.00175611
Gmin = 2.21406e-07
vernier = 0.00234148
Gmin = 2.20243e-07
vernier = 0.00312197
vernier = 0.00156098
vernier = 0.00208131
Gmin = 2.19471e-07
vernier = 0.00277508
vernier = 0.00138754
Gmin = 2.18749e-07
vernier = 0.00185005
vernier = 0.00246674
vernier = 0.00123337
Gmin = 2.18009e-07
vernier = 0.00164449
vernier = 0.00219265
Gmin = 2.17152e-07
vernier = 0.00292354
vernier = 0.00146177
Gmin = 2.1632e-07
vernier = 0.00194903
vernier = 0.0025987
Gmin = 2.15251e-07
vernier = 0.00346493
vernier = 0.00173247
Gmin = 2.14321e-07
vernier = 0.00230995
vernier = 0.00307994
vernier = 0.00153997
Gmin = 2.13406e-07
vernier = 0.00205329
Gmin = 2.12422e-07
vernier = 0.00273772
vernier = 0.00136886
vernier = 0.00182515
Gmin = 2.11769e-07
vernier = 0.00243353
vernier = 0.0032447
Gmin = 2.10538e-07
vernier = 0.00162235
vernier = 0.00216314
Gmin = 2.09828e-07
vernier = 0.00288418
vernier = 0.00144209
vernier = 0.00192279
Gmin = 2.09123e-07
vernier = 0.00256371
Gmin = 2.07954e-07
vernier = 0.00341828
vernier = 0.00170914
vernier = 0.00227886
Gmin = 2.07142e-07
vernier = 0.00303847
vernier = 0.00151924
Gmin = 2.06356e-07
vernier = 0.00202565
vernier = 0.00270086
vernier = 0.00135043
Gmin = 2.05583e-07
vernier = 0.00180058
Gmin = 2.04752e-07
vernier = 0.00240077
vernier = 0.00320102
vernier = 0.00160051
Gmin = 2.03853e-07
vernier = 0.00213401
vernier = 0.00284535
Gmin = 2.02814e-07
vernier = 0.00142268
vernier = 0.0018969
Gmin = 2.02214e-07
vernier = 0.0025292
vernier = 0.00337227
Gmin = 2.00918e-07
vernier = 0.00449635
Gmin = 1.98897e-07
vernier = 0.00599514
vernier = 0.00799351
Gmin = 1.9555e-07
vernier = 0.010658
vernier = 0.0142107
Gmin = 1.90331e-07
vernier = 0.0189476
Gmin = 1.82404e-07
vernier = 0.0252634
vernier = 0.0336846
Gmin = 1.69848e-07
vernier = 0.0449127
vernier = 0.0598836
Gmin = 1.51626e-07
vernier = 0.0798448
Gmin = 1.26899e-07
vernier = 0.10646
vernier = 0.141946
Gmin = 9.42834e-08
vernier = 0.189262
vernier = 0.252349
Gmin = 5.89581e-08
vernier = 0.336465
Gmin = 2.84324e-08
vernier = 0.44862
vernier = 0.59816
vernier = 0.29908
Gmin = 1.13703e-08
vernier = 0.14954
vernier = 0.07477
vernier = 0.037385
vernier = 0.0186925
Gmin = 1.11098e-08
vernier = 0.00934624
vernier = 0.00467312
vernier = 0.00233656
vernier = 0.00116828
Gmin = 1.10903e-08
vernier = 0.00058414
vernier = 0.000438105
Gmin = 0
Gmin stepping failed

Starting source stepping with srcstepmethod=1
Source Step = 3.0303%
Source Step = 12.1212%
Source Step = 19.697%
Source Step = 27.2727%
Source Step = 34.8485%
Source Step = 37.6894%
Source Step = 39.5833%
Source Step = 41.4773%
Source Step = 43.3712%
Source Step = 45.2652%
vernier = 0.09375
Source Step = 47.7273%
Source Step = 50.5682%
Source Step = 53.4091%
Source Step = 56.25%
Source Step = 59.0909%
vernier = 0.140625
Source Step = 62.642%
Source Step = 66.9034%
Source Step = 71.1648%
vernier = 0.0351562
Source Step = 70.7919%
Starting source stepping with srcstepmethod=0
Source Step = 3.0303%
Source Step = 33.3333%
Source Step = 63.6364%
Source Step = 93.9394%
Source Step = 99.0473%
vernier = 0.00390625
Source Step = 99.0266%
Source Step = 99.0562%
Source Step = 99.0858%
Source Step = 99.1154%
Source Step = 99.145%
Source Step = 99.1746%
Source Step = 99.2042%
Source Step = 99.2338%
Source Step = 99.2634%
Source Step = 99.293%
Source Step = 99.3226%
Source Step = 99.3522%
Source Step = 99.3817%
Source Step = 99.4113%
Source Step = 99.4409%
Source Step = 99.4705%
Source Step = 99.5001%
Source Step = 99.5297%
Source Step = 99.5593%
Source Step = 99.5889%
Source Step = 99.6185%
Source Step = 99.6481%
Source Step = 99.6777%
Source Step = 99.7073%
Source Step = 99.7369%
Source Step = 99.7665%
Source Step = 99.796%
Source Step = 99.8256%
Source Step = 99.8552%
Source Step = 99.8848%
Source Step = 99.9144%
Source Step = 99.944%
Source Step = 99.9736%
Source Step = 100%
Source Step = 100%
Source Step = 100%

Date: Tue Oct 10 11:02:30 2023
Total elapsed time: 45.711 seconds.

tnom = 27
temp = 27
method = trap
totiter = 80922
traniter = 0
tranpoints = 0
accept = 0
rejected = 0
matrix size = 215
fillins = 748
solver = Normal
Avg thread counts: 1.0/0.0/1.2/1.0
Matrix Compiler1: 72.66 KB object code size  11.4/6.9/[3.1]
Matrix Compiler2: 31.63 KB object code size  4.2/4.9/[2.5]

