Circuit: * C:\Users\nicof\Desktop\Laboratorios 6 y 7\Repositorio\Magnetometro-optico\ltspice\fotodetectores_mejorados_x3.asc


Date: Fri Nov 17 17:39:26 2023
Total elapsed time: 0.202 seconds.

tnom = 27
temp = 27
method = trap
totiter = 169
traniter = 0
tranpoints = 0
accept = 0
rejected = 0
matrix size = 238
fillins = 398
solver = Normal
Avg thread counts: 8.0/0.0/8.0/8.0
Matrix Compiler1:    2072 opcodes  16.9/8.7/[5.3]
Matrix Compiler2: 27.32 KB object code size  5.6/7.2/[4.5]

