Circuit: * C:\Users\nicof\Desktop\Laboratorios 6 y 7\Repositorio\Magnetometro-optico\ltspice\fotodetectores_mejorados_x2.asc


Date: Tue Nov  7 11:25:15 2023
Total elapsed time: 0.237 seconds.

tnom = 27
temp = 27
method = trap
totiter = 93
traniter = 0
tranpoints = 0
accept = 0
rejected = 0
matrix size = 238
fillins = 401
solver = Normal
Avg thread counts: 8.0/0.0/8.0/8.0
Matrix Compiler1: 37.46 KB object code size
Matrix Compiler2: 27.37 KB object code size
