Circuit: * C:\Users\nicof\Desktop\Laboratorios 6 y 7\Repositorio\Magnetometro-optico\ltspice\fotodetectores.asc

Direct Newton iteration failed to find .op point.  (Use ".option noopiter" to skip.)
Starting Gmin stepping
Gmin = 10
Gmin = 1.07374
Gmin = 0.115292
Gmin = 0.0123794
Gmin = 0.00132923
Gmin = 0.000142725
Gmin = 1.5325e-05
Gmin = 1.6455e-06
Gmin = 1.76685e-07
vernier = 0.5
vernier = 0.25
vernier = 0.125
Gmin = 4.63168e-08
vernier = 0.0625
vernier = 0.03125
vernier = 0.015625
vernier = 0.0078125
vernier = 0.00390625
vernier = 0.00195312
vernier = 0.000976562
vernier = 0.000488281
Gmin = 0
Gmin stepping failed

Starting source stepping with srcstepmethod=0
Source Step = 3.0303%
Source Step = 33.3333%
Source Step = 63.6364%
Source Step = 93.9394%
vernier = 0.25
Source Step = 92.0987%
Source Step = 92.1283%
Source Step = 92.1579%
Source Step = 92.1875%
Source Step = 92.2171%
vernier = 0.00146484
Source Step = 92.2482%
Source Step = 92.2926%
Source Step = 92.3369%
Source Step = 92.3813%
Source Step = 92.4257%
Source Step = 92.4701%
vernier = 0.00219727
Source Step = 92.5367%
Source Step = 92.6033%
Source Step = 92.6699%
Source Step = 92.7364%
Source Step = 92.803%
vernier = 0.0032959
Source Step = 92.8996%
Source Step = 92.9995%
Source Step = 93.0993%
Source Step = 93.1992%
Source Step = 93.2991%
vernier = 0.00494385
Source Step = 93.4389%
Source Step = 93.5887%
Source Step = 93.7385%
Source Step = 93.8883%
Source Step = 94.0382%
vernier = 0.00741577
Source Step = 94.2404%
Source Step = 94.4651%
Source Step = 94.6898%
Source Step = 94.9146%
Source Step = 95.1393%
vernier = 0.0111237
Source Step = 95.4314%
Source Step = 95.7685%
Source Step = 96.1056%
Source Step = 96.4427%
Source Step = 96.7797%
vernier = 0.0166855
Source Step = 97.2011%
Source Step = 97.7067%
Source Step = 98.2123%
Source Step = 98.718%
Source Step = 99.2236%
vernier = 0.0250282
Source Step = 99.8303%
Source stepping succeeded in finding the operating point.


Date: Mon Dec 11 16:56:33 2023
Total elapsed time: 2.469 seconds.

tnom = 27
temp = 27
method = trap
totiter = 6040
traniter = 0
tranpoints = 0
accept = 0
rejected = 0
matrix size = 213
fillins = 633
solver = Normal
Avg thread counts: 1.5/0.0/2.6/1.5
Matrix Compiler1: 52.88 KB object code size  8.8/7.4/[4.0]
Matrix Compiler2: 29.74 KB object code size  3.5/6.9/[3.0]

