Circuit: * C:\Users\nicof\Desktop\Laboratorios 6 y 7\Repositorio\Magnetometro-optico\ltspice\fotodetectores.asc

Direct Newton iteration failed to find .op point.  (Use ".option noopiter" to skip.)
Starting Gmin stepping
Gmin = 10
Gmin = 1.07374
Gmin = 0.115292
Gmin = 0.0123794
Gmin = 0.00132923
Gmin = 0.000142725
Gmin = 1.5325e-05
Gmin = 1.6455e-06
Gmin = 1.76685e-07
vernier = 0.5
vernier = 0.666667
Gmin = 6.17442e-08
vernier = 0.888888
vernier = 0.444444
Gmin = 1.725e-08
vernier = 0.592592
vernier = 0.296296
vernier = 0.148148
Gmin = 1.08867e-08
vernier = 0.074074
vernier = 0.037037
vernier = 0.0185185
vernier = 0.00925925
Gmin = 1.1109e-08
vernier = 0.00462963
vernier = 0.00231481
vernier = 0.00115741
Gmin = 1.10834e-08
vernier = 0.000578703
vernier = 0.000434027
Gmin = 0
Gmin stepping failed

Starting source stepping with srcstepmethod=0
Source Step = 3.0303%
Source Step = 33.3333%
Source Step = 63.6364%
Source Step = 88.6364%
vernier = 0.0625
Source Step = 89.7727%
Source Step = 91.6667%
Source Step = 93.5606%
Source Step = 95.4545%
Source Step = 97.3485%
vernier = 0.015625
Source Step = 97.2656%
Source Step = 97.384%
Source Step = 97.5024%
Source Step = 97.6207%
Source Step = 97.7391%
vernier = 0.00585938
Source Step = 97.9048%
Source Step = 98.0824%
Source Step = 98.2599%
Source Step = 98.4375%
Source Step = 98.6151%
vernier = 0.00878906
Source Step = 98.8548%
Source Step = 99.1211%
Source Step = 99.201%
Source Step = 99.2676%
Source Step = 99.3342%
Source Step = 99.4007%
Source Step = 99.4673%
Source Step = 99.5339%
Source Step = 99.6005%
Source Step = 99.6671%
Source Step = 99.7337%
Source Step = 99.8002%
Source Step = 99.8668%
Source Step = 99.9334%
Source Step = 100%
Source Step = 100%
Source Step = 100%
Source Step = 100%
Source Step = 100%
Source Step = 100%
Source Step = 100%
Source Step = 100%
Source Step = 100%
Source Step = 100%
Source Step = 100%
Source Step = 100%
Source Step = 100%
Source Step = 100%
Source Step = 100%
Source Step = 100%
Source Step = 100%
Source Step = 100%
Source Step = 100%
Source Step = 100%
Source Step = 100%
Source Step = 100%
Source Step = 100%
Source Step = 100%
Source Step = 100%
Source Step = 100%
Source Step = 100%
Source Step = 100%
Source Step = 100%
Source Step = 100%
Source Step = 100%
Source Step = 100%
Source Step = 100%
Source Step = 100%
Source Step = 100%
Source Step = 100%
Source Step = 100%
Source Step = 100%
Source Step = 100%
Source Step = 100%
Source Step = 100%
Source Step = 100%
Source Step = 100%
Source Step = 100%
Source Step = 100%
Source Step = 100%
Source Step = 100%
Source Step = 100%
Source Step = 100%
Source Step = 100%
Source Step = 100%
Source Step = 100%
Source Step = 100%
Source Step = 100%
Source Step = 100%
Source Step = 100%
Source Step = 100%
Source Step = 100%
Source Step = 100%
Source Step = 100%
Source Step = 100%
Source Step = 100%
Source Step = 100%
Source Step = 100%
Source Step = 100%
Source Step = 100%
Source Step = 100%
Source Step = 100%
Source Step = 100%
Source Step = 100%
Source Step = 100%
Source Step = 100%
Source Step = 100%
Source Step = 100%
Source Step = 100%
Source Step = 100%
Source Step = 100%
Starting source stepping with srcstepmethod=1
Source Step = 3.0303%
Source Step = 33.3333%
Source Step = 63.6364%
Source Step = 93.9394%
Source Step = 100%
vernier = 0.0625
Source Step = 99.0207%
Source stepping failed

Pseudo transient terminated at 100.004 s, solution accepted ready or not!
Early termination of direct N-R iteration.
Direct Newton iteration failed to find .op point.  (Use ".option noopiter" to skip.)
Starting Gmin stepping
Gmin = 10
Gmin = 1.07374
vernier = 0.5
vernier = 0.25
vernier = 0.125
vernier = 0.0625
Gmin = 1.02835
vernier = 0.03125
vernier = 0.015625
vernier = 0.0078125
Gmin = 0.99882
vernier = 0.00390625
vernier = 0.00195312
vernier = 0.000976562
vernier = 0.000488281
Gmin = 1.00004
Gmin = 0
Gmin stepping failed

Starting source stepping with srcstepmethod=0
Source Step = 3.0303%
Source Step = 33.3333%
Source Step = 63.6364%
Source Step = 88.6364%
vernier = 0.0625
Source Step = 89.7727%
Source Step = 91.6667%
Source Step = 93.5606%
Source Step = 95.4545%
Source Step = 97.3485%
vernier = 0.015625
Source Step = 97.2656%
Source Step = 97.384%
Source Step = 97.4639%
Source Step = 97.4935%
Source Step = 97.5231%
Source Step = 97.5527%
Source Step = 97.5823%
vernier = 0.00146484
Source Step = 97.6148%
Source Step = 97.6592%
Source Step = 97.7036%
Source Step = 97.748%
Source Step = 97.7924%
vernier = 0.00219727
Source Step = 97.839%
Source Step = 97.9056%
Source Step = 97.9722%
Source Step = 98.0387%
Source Step = 98.1053%
Source Step = 98.1719%
vernier = 0.0032959
Source Step = 98.2718%
Source Step = 98.3717%
Source Step = 98.4715%
Source Step = 98.5714%
Source Step = 98.6713%
vernier = 0.00494385
Source Step = 98.8161%
Source Step = 98.9659%
Source Step = 99.1157%
Source Step = 99.1944%
Source Step = 99.2318%
Source Step = 99.2693%
Source Step = 99.3067%
Source Step = 99.3442%
Source Step = 99.3816%
Starting source stepping with srcstepmethod=1
Source Step = 3.0303%
Source Step = 12.1212%
Source Step = 19.697%
Source Step = 27.2727%
Source Step = 34.8485%
Source Step = 42.4242%
vernier = 0.375
Source Step = 52.6515%
Source Step = 64.0152%
Source Step = 75.3788%
Source Step = 86.7424%
Source Step = 98.1061%
Source Step = 99.2646%
Source Step = 99.309%
Source Step = 99.3534%
Source Step = 99.3978%
Source Step = 99.4422%
Source Step = 99.4866%
Source Step = 99.531%
Source Step = 99.5753%
Source Step = 99.6197%
Source Step = 99.6641%
Source Step = 99.7085%
Source Step = 99.7529%
Source Step = 99.7973%
Source Step = 99.8417%
Source Step = 99.8861%
Source Step = 99.9305%
Source Step = 99.9748%
Source Step = 100%
Source Step = 100%
Source Step = 100%
Source Step = 100%
Source Step = 100%
Source Step = 100%
Source Step = 100%
Source Step = 100%
Source Step = 100%
Source Step = 100%
Source stepping failed

Pseudo transient terminated at 100.003 s, solution accepted ready or not!
Early termination of direct N-R iteration.
Direct Newton iteration failed to find .op point.  (Use ".option noopiter" to skip.)
Starting Gmin stepping
Gmin = 10
Gmin = 1.07374
vernier = 0.5
vernier = 0.25
vernier = 0.125
vernier = 0.0625
Gmin = 1.02835
vernier = 0.03125
vernier = 0.015625
vernier = 0.0078125
Gmin = 0.99882
vernier = 0.00390625
vernier = 0.00195312
vernier = 0.000976562
vernier = 0.000488281
Gmin = 1.00004
Gmin = 0
Gmin stepping failed

Starting source stepping with srcstepmethod=0
Source Step = 3.0303%
Source Step = 33.3333%
Source Step = 63.6364%
Source Step = 88.6364%
vernier = 0.0625
Source Step = 89.7727%
Source Step = 91.6667%
Source Step = 93.5606%
Source Step = 95.4545%
Source Step = 97.3485%
vernier = 0.015625
Source Step = 97.2656%
Source Step = 97.384%
Source Step = 97.5024%
Source Step = 97.6207%
Source Step = 97.7391%
vernier = 0.00585938
Source Step = 97.9048%
Source Step = 98.0824%
Source Step = 98.2599%
Source Step = 98.4375%
Source Step = 98.6151%
vernier = 0.00878906
Source Step = 98.8548%
Source Step = 99.1211%
Source Step = 99.201%
Source Step = 99.2676%
Source Step = 99.3342%
Source Step = 99.4007%
Source Step = 99.4673%
Source Step = 99.5339%
Source Step = 99.6005%
Source Step = 99.6671%
Source Step = 99.7337%
Source Step = 99.8002%
Source Step = 99.8668%
Source Step = 99.9334%
Source Step = 100%
Source Step = 100%
Starting source stepping with srcstepmethod=1
Source Step = 3.0303%
Source Step = 33.3333%
Source Step = 63.6364%
Source Step = 93.9394%
Source Step = 100%
vernier = 0.25
Source Step = 99.0178%
Source Step = 99.0473%
Source Step = 99.0769%
Source Step = 99.1065%
Source Step = 99.1361%
Source Step = 99.1657%
Source Step = 99.1953%
Source Step = 99.2249%
Source Step = 99.2545%
Source stepping failed

Pseudo Transient succeeded in finding the operating point at 81.4127 s.
Early termination of direct N-R iteration.
Direct Newton iteration failed to find .op point.  (Use ".option noopiter" to skip.)
Starting Gmin stepping
Gmin = 10
Gmin = 1.07374
vernier = 0.5
vernier = 0.25
vernier = 0.125
vernier = 0.0625
Gmin = 1.02835
vernier = 0.03125
vernier = 0.015625
vernier = 0.0078125
Gmin = 0.99882
vernier = 0.00390625
vernier = 0.00195312
vernier = 0.000976562
vernier = 0.000488281
Gmin = 1.00004
Gmin = 0
Gmin stepping failed

Starting source stepping with srcstepmethod=0
Source Step = 3.0303%
Source Step = 33.3333%
Source Step = 63.6364%
Source Step = 93.9394%
Source Step = 97.2064%
Source Step = 97.3248%
Source Step = 97.4136%
Source Step = 97.4432%
Source Step = 97.4728%
Source Step = 97.5024%
Source Step = 97.532%
Source Step = 97.5616%
Source Step = 97.5911%
Starting source stepping with srcstepmethod=1
Source Step = 3.0303%
Source Step = 12.1212%
Source Step = 19.697%
Source Step = 27.2727%
Source Step = 34.8485%
Source Step = 42.4242%
vernier = 0.375
Source Step = 52.6515%
Source Step = 64.0152%
Source Step = 75.3788%
Source Step = 86.7424%
Source Step = 98.1061%
vernier = 0.09375
Source Step = 97.0008%
Source Step = 97.0452%
Source Step = 97.0895%
Source Step = 97.1339%
Source Step = 97.1783%
Source Step = 97.2227%
Source Step = 97.2671%
Source Step = 97.3115%
Source Step = 97.3559%
Source Step = 97.4003%
Source Step = 97.4447%
Source Step = 97.4891%
Source Step = 97.5334%
Source Step = 97.5778%
Source Step = 97.6222%
Source Step = 97.6666%
Source Step = 97.711%
Source Step = 97.7554%
Source Step = 97.7998%
Source Step = 97.8442%
Source Step = 97.8886%
Source Step = 97.9329%
Source Step = 97.9773%
Source Step = 98.0217%
Source Step = 98.0661%
Source Step = 98.1105%
Source Step = 98.1549%
Source Step = 98.1993%
Source Step = 98.2437%
Source Step = 98.2881%
Source Step = 98.3324%
Source Step = 98.3768%
Source Step = 98.4212%
Source Step = 98.4656%
Source Step = 98.51%
Source Step = 98.5544%
Source Step = 98.5988%
Source Step = 98.6432%
Source Step = 98.6876%
Source Step = 98.7319%
Source Step = 98.7763%
Source Step = 98.8207%
Source Step = 98.8651%
Source Step = 98.9095%
Source Step = 98.9539%
Source Step = 98.9983%
Source Step = 99.0427%
Source Step = 99.0871%
Source Step = 99.1315%
Source Step = 99.1758%
Source Step = 99.2202%
Source Step = 99.2646%
Source Step = 99.309%
Source Step = 99.3534%
Source Step = 99.3978%
Source Step = 99.4422%
Source Step = 99.4866%
Source Step = 99.531%
Source Step = 99.5753%
Source Step = 99.6197%
Source Step = 99.6641%
Source Step = 99.7085%
Source Step = 99.7529%
Source Step = 99.7973%
Source Step = 99.8417%
Source Step = 99.8861%
Source Step = 99.9305%
Source Step = 99.9748%
Source Step = 100%
Source Step = 100%
Source Step = 100%
Source Step = 100%
Source Step = 100%
Source Step = 100%
Source Step = 100%
Source stepping failed

Pseudo Transient succeeded in finding the operating point at 70.7571 s.
Early termination of direct N-R iteration.
Direct Newton iteration failed to find .op point.  (Use ".option noopiter" to skip.)
Starting Gmin stepping
Gmin = 10
Gmin = 1.07374
vernier = 0.5
vernier = 0.25
vernier = 0.125
vernier = 0.0625
Gmin = 1.02835
vernier = 0.03125
vernier = 0.015625
vernier = 0.0078125
Gmin = 0.99882
vernier = 0.00390625
vernier = 0.00195312
vernier = 0.000976562
vernier = 0.000488281
Gmin = 1.00004
Gmin = 0
Gmin stepping failed

Starting source stepping with srcstepmethod=0
Source Step = 3.0303%
Source Step = 33.3333%
Source Step = 63.6364%
Source Step = 88.6364%
vernier = 0.0625
Source Step = 89.0152%
Source Step = 89.4886%
Source Step = 89.9621%
Source Step = 90.4356%
Source Step = 90.9091%
vernier = 0.0234375
Source Step = 91.4536%
Source Step = 92.1638%
Source Step = 92.8741%
Source Step = 93.5843%
Source Step = 94.2945%
vernier = 0.0351562
Source Step = 95.0758%
Source Step = 96.1411%
Source Step = 97.2064%
Source Step = 97.2597%
Source Step = 97.3263%
Source Step = 97.3929%
Source Step = 97.4595%
Source Step = 97.526%
vernier = 0.0032959
Source Step = 97.6159%
Source Step = 97.7158%
Source Step = 97.8157%
Source Step = 97.9156%
Source Step = 98.0154%
vernier = 0.00494385
Source Step = 98.1453%
Source Step = 98.2951%
Source Step = 98.4449%
Source Step = 98.5947%
Source Step = 98.7445%
vernier = 0.00741577
Source Step = 98.9318%
Source Step = 98.9824%
Source Step = 99.0385%
Source Step = 99.0947%
Source Step = 99.1509%
Source Step = 99.2071%
Source Step = 99.2633%
Source Step = 99.3194%
Source Step = 99.3756%
Source Step = 99.4318%
Source Step = 99.488%
Source Step = 99.5442%
Source Step = 99.6003%
Source Step = 99.6565%
Source Step = 99.7127%
Source Step = 99.7689%
Source Step = 99.8251%
Source Step = 99.8812%
Source Step = 99.9374%
Source Step = 99.9936%
Source Step = 100%
Starting source stepping with srcstepmethod=1
Source Step = 3.0303%
Source Step = 33.3333%
Source Step = 63.6364%
Source Step = 93.9394%
Source Step = 99.947%
vernier = 0.015625
Source Step = 99.7812%
Source stepping failed

Pseudo transient terminated at 100.012 s, solution accepted ready or not!
Early termination of direct N-R iteration.
Direct Newton iteration failed to find .op point.  (Use ".option noopiter" to skip.)
Starting Gmin stepping
Gmin = 10
Gmin = 1.07374
vernier = 0.5
vernier = 0.25
vernier = 0.125
vernier = 0.0625
Gmin = 1.02835
vernier = 0.03125
vernier = 0.015625
vernier = 0.0078125
Gmin = 0.99882
vernier = 0.00390625
vernier = 0.00195312
vernier = 0.000976562
vernier = 0.000488281
Gmin = 1.00004
Gmin = 0
Gmin stepping failed

Starting source stepping with srcstepmethod=0
Source Step = 3.0303%
Source Step = 33.3333%
Source Step = 63.6364%
Source Step = 93.9394%
Source Step = 97.2064%
Source Step = 97.3248%
Source Step = 97.4432%
Source Step = 97.5616%
Source Step = 97.6799%
vernier = 0.00585938
Source Step = 97.8161%
Source Step = 97.9936%
Source Step = 98.1712%
Source Step = 98.3487%
Source Step = 98.5263%
vernier = 0.00878906
Source Step = 98.7216%
Source Step = 98.9879%
Source Step = 99.2543%
Source Step = 99.5206%
Source Step = 99.7869%
Source Step = 99.9867%
Source Step = 100%
Starting source stepping with srcstepmethod=1
Source Step = 3.0303%
Source Step = 33.3333%
Source Step = 63.6364%
Source Step = 93.9394%
Source Step = 100%
vernier = 0.25
Source Step = 99.0178%
Source Step = 99.0473%
Source Step = 99.0769%
Source Step = 99.1065%
Source stepping failed

Pseudo Transient failed in finding the operating point at 43.1012 s.

Date: Sat Nov  4 22:22:17 2023
Total elapsed time: 816.315 seconds.

tnom = 27
temp = 27
method = trap
totiter = 20143324
traniter = 0
tranpoints = 0
accept = 0
rejected = 499164
matrix size = 219
fillins = 667
solver = Normal
Avg thread counts: 1.0/1.0/1.0/1.0
Matrix Compiler1: 67.34 KB object code size  10.9/6.3/[3.0]
Matrix Compiler2: 30.37 KB object code size  6.6/5.5/[2.5]

