Circuit: * C:\Users\nicof\Desktop\Laboratorios 6 y 7\Repositorio\Magnetometro-optico\ltspice\fotodetectores.asc


Date: Tue Nov  7 10:41:04 2023
Total elapsed time: 0.128 seconds.

tnom = 27
temp = 27
method = trap
totiter = 113
traniter = 0
tranpoints = 0
accept = 0
rejected = 0
matrix size = 213
fillins = 392
solver = Normal
Avg thread counts: 8.0/0.0/8.0/8.0
Matrix Compiler1: 36.51 KB object code size  15.4/8.2/[4.3]
Matrix Compiler2: 25.60 KB object code size  5.9/6.0/[3.5]

