Circuit: * C:\Users\nicof\Desktop\Laboratorios 6 y 7\Repositorio\Magnetometro-optico\ltspice\fotodetectores_mejorados_x3.asc

Early termination of direct N-R iteration.
Direct Newton iteration failed to find .op point.  (Use ".option noopiter" to skip.)
Starting Gmin stepping
Gmin = 10
Gmin = 1.07374
Gmin = 0.115292
Gmin = 0.0123794
Gmin = 0.00132923
Gmin = 0.000142725
Gmin = 1.5325e-05
Gmin = 1.6455e-06
Gmin = 1.76685e-07
vernier = 0.5
vernier = 0.25
Gmin = 5.14632e-08
vernier = 0.125
vernier = 0.0625
vernier = 0.03125
vernier = 0.015625
Gmin = 5.02786e-08
vernier = 0.0078125
vernier = 0.00390625
vernier = 0.00195312
vernier = 0.000976562
vernier = 0.000488281
Gmin = 0
Gmin stepping failed

Starting source stepping with srcstepmethod=0
Source Step = 3.0303%
Source Step = 33.3333%
Source Step = 63.6364%
Source Step = 93.9394%
Source Step = 99.6686%
vernier = 0.00390625
Source Step = 99.6478%
Source Step = 99.6774%
Source Step = 99.707%
Source Step = 99.7366%
Source Step = 99.7662%
vernier = 0.00146484
Source Step = 99.8002%
Source Step = 99.8446%
Source Step = 99.889%
Source Step = 99.9334%
Source Step = 99.9778%
Source stepping succeeded in finding the operating point.


Date: Sat Dec 16 20:38:56 2023
Total elapsed time: 2.766 seconds.

tnom = 27
temp = 27
method = modified trap
totiter = 4931
traniter = 784
tranpoints = 393
accept = 338
rejected = 55
matrix size = 238
fillins = 869
solver = Normal
Avg thread counts: 4.4/6.2/6.2/4.4
Matrix Compiler1: 97.30 KB object code size  26.0/13.5/[7.2]
Matrix Compiler2: 35.19 KB object code size  4.5/4.8/[2.7]

