Circuit: * C:\Users\nicof\Desktop\Laboratorios 6 y 7\Repositorio\Magnetometro-optico\ltspice\fotodetectores_mejorados_x2.asc


Date: Sat Nov 11 17:27:27 2023
Total elapsed time: 0.153 seconds.

tnom = 27
temp = 27
method = trap
totiter = 169
traniter = 0
tranpoints = 0
accept = 0
rejected = 0
matrix size = 238
fillins = 398
solver = Normal
Avg thread counts: 8.0/0.0/8.0/8.0
Matrix Compiler1:    2072 opcodes  15.4/10.2/[7.1]
Matrix Compiler2: 27.32 KB object code size  5.8/8.1/[5.3]

