Circuit: * C:\Users\nicof\Desktop\Laboratorios 6 y 7\Repositorio\Magnetometro-optico\ltspice\fotodetectores_mejorados.asc

Direct Newton iteration failed to find .op point.  (Use ".option noopiter" to skip.)
Starting Gmin stepping
Gmin = 10
Gmin = 1.07374
Gmin = 0.115292
Gmin = 0.0123794
Gmin = 0.00132923
Gmin = 0.000142725
Gmin = 1.5325e-05
Gmin = 1.6455e-06
Gmin = 1.76685e-07
vernier = 0.5
vernier = 0.25
Gmin = 5.14632e-08
vernier = 0.125
vernier = 0.0625
vernier = 0.03125
vernier = 0.015625
vernier = 0.0078125
vernier = 0.00390625
Gmin = 4.69682e-08
vernier = 0.00195312
vernier = 0.000976562
vernier = 0.00130208
Gmin = 4.68651e-08
vernier = 0.00173611
vernier = 0.00231481
Gmin = 4.66706e-08
vernier = 0.00308642
Gmin = 4.63567e-08
vernier = 0.00411522
vernier = 0.00548696
Gmin = 4.58471e-08
vernier = 0.00731595
vernier = 0.00975459
Gmin = 4.50512e-08
vernier = 0.0130061
Gmin = 4.37893e-08
vernier = 0.0173415
vernier = 0.023122
Gmin = 4.18e-08
vernier = 0.0308293
vernier = 0.0411057
Gmin = 3.88347e-08
vernier = 0.0548076
Gmin = 3.44721e-08
vernier = 0.0730768
vernier = 0.0974357
Gmin = 2.83808e-08
vernier = 0.129914
vernier = 0.173219
Gmin = 2.08916e-08
vernier = 0.230959
Gmin = 1.2765e-08
vernier = 0.307945
vernier = 0.410593
Gmin = 5.76861e-09
vernier = 0.547457
vernier = 0.273728
Gmin = 3.09048e-09
vernier = 0.364971
vernier = 0.486628
Gmin = 1.15626e-09
vernier = 0.648837
vernier = 0.865116
Gmin = 2.52095e-10
vernier = 1
Gmin = 3.01975e-11
Gmin = 3.24243e-12
Gmin = 3.48154e-13
Gmin = 0
Gmin stepping succeeded in finding the operating point.

Early termination of direct N-R iteration.
Direct Newton iteration failed to find .op point.  (Use ".option noopiter" to skip.)
Starting Gmin stepping
Gmin = 10
Gmin = 1.07374
vernier = 0.5
vernier = 0.25
vernier = 0.125
vernier = 0.0625
Gmin = 1.02835
vernier = 0.03125
vernier = 0.015625
vernier = 0.0078125
Gmin = 0.99882
vernier = 0.00390625
vernier = 0.00195312
vernier = 0.000976562
vernier = 0.000488281
Gmin = 0
Gmin stepping failed

Starting source stepping with srcstepmethod=0
Source Step = 3.0303%
Source Step = 33.3333%
Source Step = 46.2121%
Source Step = 48.1061%
Source Step = 50%
Source Step = 51.8939%
Source Step = 53.7879%
vernier = 0.09375
Source Step = 55.9659%
Source Step = 58.8068%
Source Step = 61.6477%
Source Step = 64.4886%
Source Step = 67.3295%
vernier = 0.140625
Source Step = 70.4545%
Source Step = 74.7159%
Source Step = 78.9773%
Source Step = 83.2386%
Source Step = 87.5%
vernier = 0.210938
Source Step = 91.9744%
Source Step = 94.2616%
Source Step = 94.3615%
Source Step = 94.4613%
Source Step = 94.5612%
Source Step = 94.6611%
Source Step = 94.761%
vernier = 0.00494385
Source Step = 94.9108%
Source Step = 95.0606%
Source Step = 95.2104%
Source Step = 95.3602%
Source Step = 95.51%
vernier = 0.00741577
Source Step = 95.7273%
Source Step = 95.952%
Source Step = 96.1767%
Source Step = 96.4014%
Source Step = 96.6261%
vernier = 0.0111237
Source Step = 96.9408%
Source Step = 97.2778%
Source Step = 97.6149%
Source Step = 97.952%
Source Step = 98.2891%
vernier = 0.0166855
Source Step = 98.7441%
Source Step = 99.2498%
Source Step = 99.7554%
Source stepping succeeded in finding the operating point.


Date: Sun Nov  5 03:12:28 2023
Total elapsed time: 3.267 seconds.

tnom = 27
temp = 27
method = trap
totiter = 6410
traniter = 0
tranpoints = 0
accept = 0
rejected = 0
matrix size = 237
fillins = 684
solver = Normal
Avg thread counts: 1.4/0.0/3.6/1.4
Matrix Compiler1: 63.84 KB object code size  9.4/4.5/[2.8]
Matrix Compiler2: 32.04 KB object code size  4.1/3.9/[2.3]

