Circuit: * C:\Users\nicof\Desktop\Laboratorios 6 y 7\Repositorio\Magnetometro-optico\ltspice\fotodetectores_mejorados_x2.asc


Date: Sun Nov  5 12:31:21 2023
Total elapsed time: 0.221 seconds.

tnom = 27
temp = 27
method = trap
totiter = 95
traniter = 0
tranpoints = 0
accept = 0
rejected = 0
matrix size = 238
fillins = 425
solver = Normal
Avg thread counts: 8.0/0.0/8.0/8.0
Matrix Compiler1:    2226 opcodes
Matrix Compiler2: 27.71 KB object code size  6.8/8.8/[5.3]

