Circuit: * C:\Users\nicof\Desktop\Laboratorios 6 y 7\Repositorio\Magnetometro-optico\ltspice\fotodetectores_mejorados.asc

Direct Newton iteration failed to find .op point.  (Use ".option noopiter" to skip.)
Starting Gmin stepping
Gmin = 10
Gmin = 1.07374
Gmin = 0.115292
Gmin = 0.0123794
Gmin = 0.00132923
Gmin = 0.000142725
Gmin = 1.5325e-05
Gmin = 1.6455e-06
Gmin = 1.76685e-07
vernier = 0.5
vernier = 0.25
vernier = 0.125
vernier = 0.0625
Gmin = 1.63733e-07
vernier = 0.03125
vernier = 0.015625
vernier = 0.0078125
vernier = 0.00390625
vernier = 0.00195312
vernier = 0.000976562
Gmin = 1.65002e-07
vernier = 0.000488281
Gmin = 0
Gmin stepping failed

Starting source stepping with srcstepmethod=0
Source Step = 3.0303%
Source Step = 33.3333%
Source Step = 63.6364%
Source Step = 93.9394%
vernier = 0.25
Source Step = 93.4186%
Source Step = 93.5044%
Source Step = 93.534%
Source Step = 93.5636%
Source Step = 93.5932%
Source Step = 93.6228%
vernier = 0.00146484
Source Step = 93.6583%
Source Step = 93.7027%
Source Step = 93.747%
Source Step = 93.7914%
Source Step = 93.8358%
vernier = 0.00219727
Source Step = 93.8869%
Source Step = 93.9535%
Source Step = 94.02%
Source Step = 94.0866%
Source Step = 94.1532%
vernier = 0.0032959
Source Step = 94.2264%
Source Step = 94.3263%
Source Step = 94.4262%
Source Step = 94.5261%
Source Step = 94.6259%
vernier = 0.00494385
Source Step = 94.7308%
Source Step = 94.8095%
Source Step = 94.8469%
Source Step = 94.8844%
Source Step = 94.9218%
Source Step = 94.9593%
vernier = 0.00185394
Source Step = 95.0042%
Source Step = 95.0604%
Source Step = 95.1166%
Source Step = 95.1728%
Source Step = 95.2289%
vernier = 0.00278091
Source Step = 95.2936%
Source Step = 95.3778%
Source Step = 95.4621%
Source Step = 95.5464%
Source Step = 95.6306%
vernier = 0.00417137
Source Step = 95.7233%
Source Step = 95.8497%
Source Step = 95.9761%
Source Step = 96.1025%
Source Step = 96.229%
vernier = 0.00625706
Source Step = 96.3617%
Source Step = 96.5513%
Source Step = 96.7409%
Source Step = 96.9305%
Source Step = 97.1201%
Source Step = 97.3097%
vernier = 0.00938559
Source Step = 97.5941%
Source Step = 97.8785%
Source Step = 98.163%
Source Step = 98.4474%
Source Step = 98.7318%
vernier = 0.0140784
Source Step = 99.1442%
Source Step = 99.5708%
Source Step = 99.6721%
Source Step = 99.6988%
Source Step = 99.7254%
Source Step = 99.7521%
Source Step = 99.7788%
Source Step = 99.8054%
Source Step = 99.8321%
Source Step = 99.8588%
Source Step = 99.8854%
vernier = 0.00131985
Source Step = 99.9227%
Source Step = 99.9627%
Source Step = 100%
Source Step = 100%
Source Step = 100%
Source Step = 100%
Source Step = 100%
Source Step = 100%
Source Step = 100%
Source Step = 100%
Source Step = 100%
Source Step = 100%
Source Step = 100%
Source Step = 100%
Source Step = 100%
Source Step = 100%
Source Step = 100%
Source Step = 100%
Source Step = 100%
Source Step = 100%
Source Step = 100%
Source Step = 100%
Source Step = 100%
Source Step = 100%
Source Step = 100%
Source Step = 100%
Source Step = 100%
Source Step = 100%
Source Step = 100%
Source Step = 100%
Source Step = 100%
Source Step = 100%
Source Step = 100%
Source Step = 100%
Source Step = 100%
Source Step = 100%
Source Step = 100%
Source Step = 100%
Source Step = 100%
Source Step = 100%
Source Step = 100%
Source Step = 100%
Source Step = 100%
Source Step = 100%
Source Step = 100%
Source Step = 100%
Source Step = 100%
Source Step = 100%
Source Step = 100%
Source Step = 100%
Source Step = 100%
Source Step = 100%
Source Step = 100%
Source Step = 100%
Source Step = 100%
Source Step = 100%
Source Step = 100%
Source Step = 100%
Source Step = 100%
Source Step = 100%
Source Step = 100%
Source Step = 100%
Source Step = 100%
Source Step = 100%
Source Step = 100%
Source Step = 100%
Source Step = 100%
Source Step = 100%
Source Step = 100%
Source Step = 100%
Source Step = 100%
Source Step = 100%
Source Step = 100%
Source Step = 100%
Source Step = 100%
Source Step = 100%
Source Step = 100%
Source Step = 100%
Source Step = 100%
Source Step = 100%
Source Step = 100%
Source Step = 100%
Source Step = 100%
Source Step = 100%
Source Step = 100%
Source Step = 100%
Source Step = 100%
Source Step = 100%
Source Step = 100%
Source Step = 100%
Source Step = 100%
Source Step = 100%
Source Step = 100%
Source Step = 100%
Source Step = 100%
Source Step = 100%
Source Step = 100%
Source Step = 100%
Source Step = 100%
Source Step = 100%
Source Step = 100%
Source Step = 100%
Source Step = 100%
Source Step = 100%
Source Step = 100%
Source Step = 100%
Source Step = 100%
Source Step = 100%
Source Step = 100%
Source Step = 100%
Source Step = 100%
Source Step = 100%
Source Step = 100%
Source Step = 100%
Source Step = 100%
Source Step = 100%
Source Step = 100%
Source Step = 100%
Source Step = 100%
Source Step = 100%
Source Step = 100%
Source Step = 100%
Source Step = 100%
Source Step = 100%
Source Step = 100%
Source Step = 100%
Source Step = 100%
Source Step = 100%
Source Step = 100%
Source Step = 100%
Source Step = 100%
Source Step = 100%
Source Step = 100%
Source Step = 100%
Source Step = 100%
Source Step = 100%
Source Step = 100%
Source Step = 100%
Source Step = 100%
Source Step = 100%
Source Step = 100%
Source Step = 100%
Source Step = 100%
Source Step = 100%
Source Step = 100%
Source Step = 100%
Source Step = 100%
Source Step = 100%
Source Step = 100%
Source Step = 100%
Source Step = 100%
Source Step = 100%
Source Step = 100%
Source Step = 100%
Source Step = 100%
Source Step = 100%
Source Step = 100%
Source Step = 100%
Source Step = 100%
Source Step = 100%
Source Step = 100%
Source Step = 100%
Source Step = 100%
Source Step = 100%
Source Step = 100%
Source Step = 100%
Source Step = 100%
Source Step = 100%
Source Step = 100%
Source Step = 100%
Source Step = 100%
Source Step = 100%
Source Step = 100%
Source Step = 100%
Source Step = 100%
Source Step = 100%
Source Step = 100%
Source Step = 100%
Source Step = 100%
Source Step = 100%
Source Step = 100%
Source Step = 100%
Source Step = 100%
Source Step = 100%
Source Step = 100%
Source Step = 100%
Source Step = 100%
Starting source stepping with srcstepmethod=1
Source Step = 3.0303%
Source Step = 14.3939%
Source Step = 21.9697%
Source Step = 29.5455%
Source Step = 37.1212%
Source Step = 44.697%
vernier = 0.375
Source Step = 54.5455%
Source Step = 65.9091%
Source Step = 77.2727%
Source Step = 88.6364%
Source Step = 100%
vernier = 0.09375
Source Step = 98.8947%
Source Step = 98.9391%
Source Step = 98.9835%
Source stepping failed

Pseudo transient terminated at 100.001 s, solution accepted ready or not!
Early termination of direct N-R iteration.
Direct Newton iteration failed to find .op point.  (Use ".option noopiter" to skip.)
Starting Gmin stepping
Gmin = 10
Gmin = 1.07374
Gmin = 0.115292
Gmin = 0.0123794
Gmin = 0.00132923
Gmin = 0.000142725
Gmin = 1.5325e-05
Gmin = 1.6455e-06
Gmin = 1.76685e-07
vernier = 0.5
vernier = 0.25
vernier = 0.125
vernier = 0.0625
Gmin = 1.63733e-07
vernier = 0.03125
vernier = 0.015625
vernier = 0.0078125
vernier = 0.00390625
vernier = 0.00195312
Gmin = 1.64681e-07
vernier = 0.000976562
vernier = 0.000488281
Gmin = 0
Gmin stepping failed

Starting source stepping with srcstepmethod=0
Source Step = 3.0303%
Source Step = 33.3333%
Source Step = 63.6364%
Source Step = 93.9394%
vernier = 0.25
Source Step = 93.4186%
Source Step = 93.5044%
Source Step = 93.534%
Source Step = 93.5636%
Source Step = 93.5932%
Source Step = 93.6228%
vernier = 0.00146484
Source Step = 93.6583%
Source Step = 93.7027%
Source Step = 93.747%
Source Step = 93.7914%
Source Step = 93.8358%
vernier = 0.00219727
Source Step = 93.8869%
Source Step = 93.9535%
Source Step = 94.02%
Source Step = 94.0866%
Source Step = 94.1532%
vernier = 0.0032959
Source Step = 94.2264%
Source Step = 94.3263%
Source Step = 94.4262%
Source Step = 94.5261%
Source Step = 94.6259%
vernier = 0.00494385
Source Step = 94.7308%
Source Step = 94.8806%
vernier = 0.00123596
Source Step = 94.9031%
Source Step = 94.9406%
Source Step = 94.978%
Source Step = 95.0155%
Source Step = 95.0529%
vernier = 0.00185394
Source Step = 95.1072%
Source Step = 95.1634%
Source Step = 95.2196%
Source Step = 95.2758%
Source Step = 95.3319%
vernier = 0.00278091
Source Step = 95.4106%
Source Step = 95.4949%
Source Step = 95.5791%
Source Step = 95.6634%
Source Step = 95.7477%
vernier = 0.00417137
Source Step = 95.8614%
Source Step = 95.9878%
Source Step = 96.1143%
Source Step = 96.2407%
Source Step = 96.3671%
vernier = 0.00625706
Source Step = 96.5314%
Source Step = 96.721%
Source Step = 96.9106%
Source Step = 97.1002%
Source Step = 97.2898%
vernier = 0.00938559
Source Step = 97.5268%
Source Step = 97.8112%
Source Step = 98.0957%
Source Step = 98.3801%
Source Step = 98.6645%
vernier = 0.0140784
Source Step = 99.0058%
Source Step = 99.4324%
Source Step = 99.859%
Source Step = 99.0083%
Source Step = 99.035%
Source Step = 99.0616%
Source Step = 99.0883%
Source Step = 99.115%
Source Step = 99.1416%
Source Step = 99.1683%
Source Step = 99.195%
Source Step = 99.2216%
Source Step = 99.2483%
Source Step = 99.275%
Source Step = 99.3016%
Source Step = 99.3283%
Source Step = 99.3549%
Source Step = 99.3816%
Source Step = 99.4083%
Starting source stepping with srcstepmethod=1
Source Step = 3.0303%
Source Step = 14.3939%
Source Step = 21.9697%
Source Step = 29.5455%
Source Step = 37.1212%
Source Step = 44.697%
vernier = 0.375
Source Step = 54.5455%
Source Step = 65.9091%
Source Step = 77.2727%
Source Step = 88.6364%
Source Step = 100%
vernier = 0.09375
Source Step = 98.8947%
Source Step = 98.9391%
Source Step = 98.9835%
Source Step = 99.0279%
Source Step = 99.0723%
Source Step = 99.1167%
Source Step = 99.161%
Source Step = 99.2054%
Source Step = 99.2498%
Source Step = 99.2942%
Source Step = 99.3386%
Source Step = 99.383%
Source Step = 99.4274%
Source Step = 99.4718%
Source Step = 99.5162%

Date: Fri Nov  3 19:45:51 2023
Total elapsed time: 97.742 seconds.

tnom = 27
temp = 27
method = trap
totiter = 963242
traniter = 0
tranpoints = 0
accept = 0
rejected = 12324
matrix size = 239
fillins = 697
solver = Normal
Avg thread counts: 1.0/1.1/1.1/1.0
Matrix Compiler1: 63.50 KB object code size  12.6/7.0/[3.3]
Matrix Compiler2: 32.34 KB object code size  4.4/5.2/[2.8]

