Circuit: * C:\Users\nicof\Desktop\Laboratorios 6 y 7\Repositorio\Magnetometro-optico\ltspice\Fuente de corriente.asc

Warning: Multiple definitions of model "2scr375p" Type: BJT
Warning: Multiple definitions of model "bc857b" Type: BJT
Warning: Multiple definitions of model "bc847c" Type: BJT
Warning: Multiple definitions of model "bc847b" Type: BJT
Direct Newton iteration failed to find .op point.  (Use ".option noopiter" to skip.)
Starting Gmin stepping
Gmin = 10
Gmin = 1.07374
vernier = 0.5
vernier = 0.25
vernier = 0.125
vernier = 0.0625
Gmin = 0.995033
vernier = 0.03125
vernier = 0.015625
vernier = 0.0078125
vernier = 0.00390625
vernier = 0.00195312
Gmin = 0.995033
vernier = 0.000976562
vernier = 0.000488281
Gmin = 0
Gmin stepping failed

Starting source stepping with srcstepmethod=0
Source Step = 3.0303%
Source Step = 33.3333%
Source Step = 63.6364%
Source Step = 93.9394%
Source stepping succeeded in finding the operating point.


Date: Fri Nov  3 13:46:21 2023
Total elapsed time: 0.480 seconds.

tnom = 27
temp = 27
method = modified trap
totiter = 1914
traniter = 88
tranpoints = 40
accept = 39
rejected = 1
matrix size = 66
fillins = 142
solver = Normal
Avg thread counts: 8.0/8.0/8.0/8.0
Matrix Compiler1: 11.51 KB object code size
Matrix Compiler2: 8.19 KB object code size  1.7/2.4/[1.0]

