Circuit: * C:\Users\nicof\Desktop\Laboratorios 6 y 7\Repositorio\Magnetometro-optico\ltspice\Fuente de corriente.asc

Warning: Multiple definitions of model "2scr375p" Type: BJT
Warning: Multiple definitions of model "bc857b" Type: BJT
Warning: Multiple definitions of model "bc847c" Type: BJT
Warning: Multiple definitions of model "bc847b" Type: BJT
Direct Newton iteration failed to find .op point.  (Use ".option noopiter" to skip.)
Starting Gmin stepping
Gmin = 10
Gmin = 1.07374
vernier = 0.5
vernier = 0.25
vernier = 0.125
vernier = 0.0625
Gmin = 0.995033
vernier = 0.03125
vernier = 0.015625
vernier = 0.0078125
vernier = 0.00390625
Gmin = 0.999816
vernier = 0.00195312
vernier = 0.000976562
vernier = 0.000488281
Gmin = 0
Gmin stepping failed

Starting source stepping with srcstepmethod=0
Source Step = 3.0303%
Source Step = 28.0303%
Source Step = 30.303%
Source Step = 32.197%
Source Step = 34.0909%
Source Step = 35.9848%
Source Step = 37.8788%
vernier = 0.09375
Source Step = 40.4356%
Source Step = 43.2765%
Source Step = 46.1174%
Source Step = 48.9583%
Source Step = 51.7992%
vernier = 0.140625
Source Step = 55.4924%
Source Step = 59.7538%
Source Step = 62.3106%
Source Step = 62.7101%
Source Step = 62.9764%
Source Step = 63.2428%
Source Step = 63.5091%
Source Step = 63.6489%
Source Step = 63.7155%
Source Step = 63.7821%
Source Step = 63.8487%
Source Step = 63.9153%
Source Step = 63.9819%
vernier = 0.0032959
Source Step = 64.0518%
Source Step = 64.1516%
Source Step = 64.2515%
Source Step = 64.3514%
Source Step = 64.4513%
Source Step = 64.5512%
vernier = 0.00494385
Source Step = 64.701%
Source Step = 64.8508%
Source Step = 65.0006%
Source Step = 65.1504%
Source Step = 65.3002%
vernier = 0.00741577
Source Step = 65.5174%
Source Step = 65.7422%
Source Step = 65.9669%
Source Step = 66.1916%
Source Step = 66.4163%
vernier = 0.0111237
Source Step = 66.7309%
Source Step = 67.068%
Source Step = 67.4051%
Source Step = 67.7422%
Source Step = 68.0793%
vernier = 0.0166855
Source Step = 68.5343%
Source Step = 69.0399%
Source Step = 69.5456%
Source Step = 70.0512%
Source Step = 70.5568%
vernier = 0.0250282
Source Step = 71.2141%
Source Step = 71.9725%
Source Step = 72.731%
Source Step = 73.4894%
Source Step = 74.2478%
vernier = 0.0375423
Source Step = 75.1959%
Source Step = 76.3335%
Source Step = 77.4712%
Source Step = 78.6088%
Source Step = 79.7465%
vernier = 0.0563135
Source Step = 81.1116%
Source Step = 82.8181%
Source Step = 84.5246%
Source Step = 86.231%
Source Step = 87.9375%
vernier = 0.0844703
Source Step = 89.9%
Source Step = 92.4597%
Source Step = 95.0194%
Source Step = 97.5791%
Source Step = 100%
Source stepping succeeded in finding the operating point.


Date: Tue Nov  7 12:37:38 2023
Total elapsed time: 1.029 seconds.

tnom = 27
temp = 27
method = trap
totiter = 4732
traniter = 0
tranpoints = 0
accept = 0
rejected = 0
matrix size = 66
fillins = 160
solver = Normal
Avg thread counts: 1.6/0.0/4.5/1.6
Matrix Compiler1:     677 opcodes  3.5/4.1/[2.2]
Matrix Compiler2: 8.51 KB object code size  3.8/4.6/[1.8]

