Circuit: * C:\Users\nicof\Desktop\Laboratorios 6 y 7\Repositorio\Magnetometro-optico\ltspice\Fuente de corriente.asc

Warning: Multiple definitions of model "2scr375p" Type: BJT
Warning: Multiple definitions of model "bc857b" Type: BJT
Warning: Multiple definitions of model "bc847c" Type: BJT
Warning: Multiple definitions of model "bc847b" Type: BJT
WARNING: Less than two connections to node nc_01.  This node is used by r9.
Direct Newton iteration failed to find .op point.  (Use ".option noopiter" to skip.)
Starting Gmin stepping
Gmin = 10
Gmin = 1.07374
vernier = 0.5
vernier = 0.25
vernier = 0.125
vernier = 0.0625
Gmin = 0.995033
vernier = 0.03125
vernier = 0.015625
vernier = 0.0078125
vernier = 0.00390625
Gmin = 0.999816
vernier = 0.00195312
vernier = 0.000976562
vernier = 0.000488281
Gmin = 0
Gmin stepping failed

Starting source stepping with srcstepmethod=0
Source Step = 3.0303%
Source Step = 28.0303%
Source Step = 30.303%
Source Step = 32.197%
Source Step = 34.0909%
Source Step = 35.9848%
Source Step = 37.8788%
vernier = 0.09375
Source Step = 40.4356%
Source Step = 43.2765%
Source Step = 46.1174%
Source Step = 48.9583%
Source Step = 51.7992%
vernier = 0.140625
Source Step = 55.4924%
Source Step = 59.7538%
vernier = 0.0351562
Source Step = 60.393%
Source Step = 61.4583%
Source Step = 62.5237%
Source Step = 62.6968%
Source Step = 62.7634%
Source Step = 62.83%
Source Step = 62.8965%
Source Step = 62.9631%
Source Step = 63.0297%
vernier = 0.0032959
Source Step = 63.1263%
Source Step = 63.2261%
Source Step = 63.326%
Source Step = 63.4259%
Source Step = 63.5258%
vernier = 0.00494385
Source Step = 63.6656%
Source Step = 63.8154%
Source Step = 63.9652%
Source Step = 64.115%
Source Step = 64.2648%
vernier = 0.00741577
Source Step = 64.4671%
Source Step = 64.6918%
Source Step = 64.9165%
Source Step = 65.1413%
Source Step = 65.366%
vernier = 0.0111237
Source Step = 65.6581%
Source Step = 65.9952%
Source Step = 66.3323%
Source Step = 66.6693%
Source Step = 67.0064%
vernier = 0.0166855
Source Step = 67.4278%
Source Step = 67.9334%
Source Step = 68.439%
Source Step = 68.9446%
Source Step = 69.4503%
vernier = 0.0250282
Source Step = 70.057%
Source Step = 70.8154%
Source Step = 71.5739%
Source Step = 72.3323%
Source Step = 73.0907%
vernier = 0.0375423
Source Step = 73.9629%
Source Step = 75.1006%
Source Step = 76.2382%
Source Step = 77.3759%
Source Step = 78.5135%
vernier = 0.0563135
Source Step = 79.7649%
Source Step = 81.4714%
Source Step = 83.1779%
Source Step = 84.8843%
Source Step = 86.5908%
vernier = 0.0844703
Source Step = 88.3826%
Source Step = 90.9423%
Source Step = 93.502%
Source Step = 96.0617%
Source Step = 98.6214%
Source stepping succeeded in finding the operating point.


Date: Tue Nov 21 14:36:19 2023
Total elapsed time: 0.741 seconds.

tnom = 27
temp = 27
method = trap
totiter = 4671
traniter = 0
tranpoints = 0
accept = 0
rejected = 0
matrix size = 67
fillins = 160
solver = Normal
Avg thread counts: 1.6/0.0/4.3/1.6
Matrix Compiler1:     678 opcodes  2.4/2.3/[0.8]
Matrix Compiler2: 8.54 KB object code size  1.6/1.6/[0.7]

