Circuit: * C:\Users\nicof\Desktop\Laboratorios 6 y 7\Repositorio\Magnetometro-optico\ltspice\Fuente de corriente.asc

Warning: Multiple definitions of model "2scr375p" Type: BJT
Warning: Multiple definitions of model "bc857b" Type: BJT
Warning: Multiple definitions of model "bc847c" Type: BJT
Warning: Multiple definitions of model "bc847b" Type: BJT
WARNING: Node NC_02 is floating.

WARNING: Less than two connections to node nc_01.  This node is used by d1.
WARNING: Less than two connections to node nc_02.  This node is used by d1.
Direct Newton iteration for .op point succeeded.

Date: Fri Nov 10 16:03:21 2023
Total elapsed time: 0.306 seconds.

tnom = 27
temp = 27
method = modified trap
totiter = 598
traniter = 576
tranpoints = 289
accept = 289
rejected = 0
matrix size = 68
fillins = 80
solver = Normal
Avg thread counts: 5.2/7.0/3.3/5.2
Matrix Compiler1: 8.13 KB object code size  5.6/3.4/[2.0]
Matrix Compiler2: 7.15 KB object code size  2.8/3.5/[1.3]

