Circuit: * C:\Users\nicof\Desktop\Laboratorios 6 y 7\Repositorio\Magnetometro-optico\ltspice\Fuente de corriente.asc

Warning: Multiple definitions of model "2scr375p" Type: BJT
Warning: Multiple definitions of model "bc857b" Type: BJT
Warning: Multiple definitions of model "bc847c" Type: BJT
Warning: Multiple definitions of model "bc847b" Type: BJT
Direct Newton iteration failed to find .op point.  (Use ".option noopiter" to skip.)
Starting Gmin stepping
Gmin = 10
Gmin = 1.07374
vernier = 0.5
vernier = 0.25
vernier = 0.125
vernier = 0.0625
Gmin = 0.995033
vernier = 0.03125
vernier = 0.015625
vernier = 0.0078125
vernier = 0.00390625
Gmin = 0.999816
vernier = 0.00195312
vernier = 0.000976562
vernier = 0.000488281
Gmin = 0
Gmin stepping failed

Starting source stepping with srcstepmethod=0
Source Step = 3.0303%
Source Step = 28.0303%
Source Step = 30.303%
Source Step = 32.197%
Source Step = 34.0909%
Source Step = 35.9848%
Source Step = 37.8788%
vernier = 0.09375
Source Step = 40.4356%
Source Step = 43.2765%
Source Step = 46.1174%
Source Step = 48.9583%
Source Step = 51.7992%
vernier = 0.140625
Source Step = 55.4924%
Source Step = 57.0904%
Source Step = 58.1558%
Source Step = 59.2211%
vernier = 0.00878906
Source Step = 59.3809%
Source Step = 59.4608%
Source Step = 59.5274%
Source Step = 59.594%
Source Step = 59.6606%
Source Step = 59.7272%
vernier = 0.0032959
Source Step = 59.8137%
Source Step = 59.9136%
Source Step = 60.0135%
Source Step = 60.1133%
Source Step = 60.2132%
vernier = 0.00494385
Source Step = 60.3381%
Source Step = 60.4879%
Source Step = 60.6377%
Source Step = 60.7875%
Source Step = 60.9373%
vernier = 0.00741577
Source Step = 61.1171%
Source Step = 61.3418%
Source Step = 61.5665%
Source Step = 61.7913%
Source Step = 62.016%
vernier = 0.0111237
Source Step = 62.2744%
Source Step = 62.6115%
Source Step = 62.9486%
Source Step = 63.2856%
Source Step = 63.6227%
vernier = 0.0166855
Source Step = 63.9935%
Source Step = 64.4991%
Source Step = 65.0048%
Source Step = 65.5104%
Source Step = 66.016%
vernier = 0.0250282
Source Step = 66.5469%
Source Step = 67.3053%
Source Step = 68.0638%
Source Step = 68.8222%
Source Step = 69.5806%
Source Step = 70.3391%
vernier = 0.0375423
Source Step = 71.4767%
Source Step = 72.6143%
Source Step = 73.752%
Source Step = 74.8896%
Source Step = 76.0273%
vernier = 0.0563135
Source Step = 77.6769%
Source Step = 79.3833%
Source Step = 81.0898%
Source Step = 82.7963%
Source Step = 84.5028%
vernier = 0.0844703
Source Step = 86.8918%
Source Step = 89.4515%
Source Step = 92.0112%
Source Step = 94.5709%
Source Step = 97.1306%
vernier = 0.126705
Source stepping succeeded in finding the operating point.


Date: Fri Nov 24 14:56:34 2023
Total elapsed time: 0.736 seconds.

tnom = 27
temp = 27
method = trap
totiter = 4667
traniter = 0
tranpoints = 0
accept = 0
rejected = 0
matrix size = 66
fillins = 162
solver = Normal
Avg thread counts: 1.6/0.0/4.4/1.6
Matrix Compiler1:     684 opcodes  2.6/1.8/[1.2]
Matrix Compiler2: 8.54 KB object code size  1.6/1.8/[0.9]

