Circuit: * C:\Users\nicof\Desktop\Laboratorios 6 y 7\Repositorio\Magnetometro-optico\ltspice\resta.asc

Direct Newton iteration for .op point succeeded.

Date: Tue Dec 19 15:56:19 2023
Total elapsed time: 0.475 seconds.

tnom = 27
temp = 27
method = modified trap
totiter = 2462
traniter = 2457
tranpoints = 1121
accept = 1101
rejected = 20
matrix size = 132
fillins = 216
solver = Normal
Avg thread counts: 2.1/3.4/3.5/2.1
Matrix Compiler1: 21.33 KB object code size  11.9/7.1/[4.4]
Matrix Compiler2: 14.67 KB object code size  4.6/5.8/[3.1]

